
#======================================================================
# CRYSTAL DATA
#----------------------------------------------------------------------
data_VESTA_phase_1

_chemical_name_common                  'New structure'
_cell_length_a                         12.600000
_cell_length_b                         12.600000
_cell_length_c                         12.600000
_cell_angle_alpha                      90.000000
_cell_angle_beta                       90.000000
_cell_angle_gamma                      90.000000
_cell_volume                           2000.376182
_space_group_name_H-M_alt              'P m -3 m'
_space_group_IT_number                 221

loop_
_space_group_symop_operation_xyz
   'x, y, z'
   '-x, -y, -z'
   '-x, -y, z'
   'x, y, -z'
   '-x, y, -z'
   'x, -y, z'
   'x, -y, -z'
   '-x, y, z'
   'z, x, y'
   '-z, -x, -y'
   'z, -x, -y'
   '-z, x, y'
   '-z, -x, y'
   'z, x, -y'
   '-z, x, -y'
   'z, -x, y'
   'y, z, x'
   '-y, -z, -x'
   '-y, z, -x'
   'y, -z, x'
   'y, -z, -x'
   '-y, z, x'
   '-y, -z, x'
   'y, z, -x'
   'y, x, -z'
   '-y, -x, z'
   '-y, -x, -z'
   'y, x, z'
   'y, -x, z'
   '-y, x, -z'
   '-y, x, z'
   'y, -x, -z'
   'x, z, -y'
   '-x, -z, y'
   '-x, z, y'
   'x, -z, -y'
   '-x, -z, -y'
   'x, z, y'
   'x, -z, y'
   '-x, z, -y'
   'z, y, -x'
   '-z, -y, x'
   'z, -y, x'
   '-z, y, -x'
   '-z, y, x'
   'z, -y, -x'
   '-z, -y, -x'
   'z, y, x'

loop_
   _atom_site_label
   _atom_site_occupancy
   _atom_site_fract_x
   _atom_site_fract_y
   _atom_site_fract_z
   _atom_site_adp_type
   _atom_site_U_iso_or_equiv
   _atom_site_type_symbol
   Cs0        1.0     0.250000     0.250000     0.250000    Uiso  0.050000 Cs
   Pb0        1.0     0.000000     0.000000     0.000000    Uiso  0.050000 Pb
   Pb1        1.0     0.500000     0.000000     0.000000    Uiso  0.050000 Pb
   Pb2        1.0     0.500000     0.000000     0.500000    Uiso  0.050000 Pb
   Pb3        1.0     0.500000     0.500000     0.500000    Uiso  0.050000 Pb
   I0         1.0     0.250000     0.000000     0.000000    Uiso  0.050000 I
   I1         1.0     0.500000     0.000000     0.250000    Uiso  0.050000 I
   I2         1.0     0.500000     0.250000     0.500000    Uiso  0.050000 I
