
#======================================================================
# CRYSTAL DATA
#----------------------------------------------------------------------
data_VESTA_phase_1

_chemical_name_common                  'Li-Ge-P-S compound'
_cell_length_a                         12.299443
_cell_length_b                         35.683002
_cell_length_c                         13.591637
_cell_angle_alpha                      90.000000
_cell_angle_beta                       90.000000
_cell_angle_gamma                      90.000000
_cell_volume                           5965.111954
_space_group_name_H-M_alt              'P 1'
_space_group_IT_number                 1

loop_
_space_group_symop_operation_xyz
   'x, y, z'

loop_
   _atom_site_label
   _atom_site_occupancy
   _atom_site_fract_x
   _atom_site_fract_y
   _atom_site_fract_z
   _atom_site_adp_type
   _atom_site_U_iso_or_equiv
   _atom_site_type_symbol
   Li1        1.0     0.753950     0.317510     0.771980    Uiso  ? Li
   Li1        1.0     0.246050     0.682490     0.228020    Uiso  ? Li
   Li1        1.0     0.746050     0.682490     0.771980    Uiso  ? Li
   Li1        1.0     0.253950     0.317510     0.228020    Uiso  ? Li
   Li1        1.0     0.246050     0.317510     0.728020    Uiso  ? Li
   Li1        1.0     0.753950     0.682490     0.271980    Uiso  ? Li
   Li1        1.0     0.253950     0.682490     0.728020    Uiso  ? Li
   Li1        1.0     0.746050     0.317510     0.271980    Uiso  ? Li
   Li1        1.0     0.253950     0.817510     0.771980    Uiso  ? Li
   Li1        1.0     0.746050     0.182490     0.228020    Uiso  ? Li
   Li1        1.0     0.246050     0.182490     0.771980    Uiso  ? Li
   Li1        1.0     0.753950     0.817510     0.228020    Uiso  ? Li
   Li1        1.0     0.746050     0.817510     0.728020    Uiso  ? Li
   Li1        1.0     0.253950     0.182490     0.271980    Uiso  ? Li
   Li1        1.0     0.753950     0.182490     0.728020    Uiso  ? Li
   Li1        1.0     0.246050     0.817510     0.271980    Uiso  ? Li
   Li2        1.0     0.500000     0.582120     0.250000    Uiso  ? Li
   Li2        1.0     0.500000     0.417880     0.750000    Uiso  ? Li
   Li2        1.0     0.000000     0.417880     0.250000    Uiso  ? Li
   Li2        1.0     0.000000     0.582120     0.750000    Uiso  ? Li
   Li2        1.0     0.000000     0.082120     0.250000    Uiso  ? Li
   Li2        1.0     0.000000     0.917880     0.750000    Uiso  ? Li
   Li2        1.0     0.500000     0.917880     0.250000    Uiso  ? Li
   Li2        1.0     0.500000     0.082120     0.750000    Uiso  ? Li
   Li3        1.0     0.341690     0.589290     0.719980    Uiso  ? Li
   Li3        1.0     0.658310     0.410710     0.280020    Uiso  ? Li
   Li3        1.0     0.158310     0.410710     0.719980    Uiso  ? Li
   Li3        1.0     0.841690     0.589290     0.280020    Uiso  ? Li
   Li3        1.0     0.658310     0.589290     0.780020    Uiso  ? Li
   Li3        1.0     0.341690     0.410710     0.219980    Uiso  ? Li
   Li3        1.0     0.841690     0.410710     0.780020    Uiso  ? Li
   Li3        1.0     0.158310     0.589290     0.219980    Uiso  ? Li
   Li3        1.0     0.841690     0.089290     0.719980    Uiso  ? Li
   Li3        1.0     0.158310     0.910710     0.280020    Uiso  ? Li
   Li3        1.0     0.658310     0.910710     0.719980    Uiso  ? Li
   Li3        1.0     0.341690     0.089290     0.280020    Uiso  ? Li
   Li3        1.0     0.158310     0.089290     0.780020    Uiso  ? Li
   Li3        1.0     0.841690     0.910710     0.219980    Uiso  ? Li
   Li3        1.0     0.341690     0.910710     0.780020    Uiso  ? Li
   Li3        1.0     0.658310     0.089290     0.219980    Uiso  ? Li
   Li4        1.0     0.497410     0.556330     0.956850    Uiso  ? Li
   Li4        1.0     0.502590     0.443670     0.043150    Uiso  ? Li
   Li4        1.0     0.002590     0.443670     0.956850    Uiso  ? Li
   Li4        1.0     0.997410     0.556330     0.043150    Uiso  ? Li
   Li4        1.0     0.502590     0.556330     0.543150    Uiso  ? Li
   Li4        1.0     0.497410     0.443670     0.456850    Uiso  ? Li
   Li4        1.0     0.997410     0.443670     0.543150    Uiso  ? Li
   Li4        1.0     0.002590     0.556330     0.456850    Uiso  ? Li
   Li4        1.0     0.997410     0.056330     0.956850    Uiso  ? Li
   Li4        1.0     0.002590     0.943670     0.043150    Uiso  ? Li
   Li4        1.0     0.502590     0.943670     0.956850    Uiso  ? Li
   Li4        1.0     0.497410     0.056330     0.043150    Uiso  ? Li
   Li4        1.0     0.002590     0.056330     0.543150    Uiso  ? Li
   Li4        1.0     0.997410     0.943670     0.456850    Uiso  ? Li
   Li4        1.0     0.497410     0.943670     0.543150    Uiso  ? Li
   Li4        1.0     0.502590     0.056330     0.456850    Uiso  ? Li
   Li5        1.0     0.000000     0.750000     0.250000    Uiso  ? Li
   Li5        1.0     0.000000     0.250000     0.750000    Uiso  ? Li
   Li5        1.0     0.500000     0.250000     0.250000    Uiso  ? Li
   Li5        1.0     0.500000     0.750000     0.750000    Uiso  ? Li
   Li6        1.0     0.378730     0.746560     0.493850    Uiso  ? Li
   Li6        1.0     0.621270     0.253440     0.506150    Uiso  ? Li
   Li6        1.0     0.121270     0.253440     0.493850    Uiso  ? Li
   Li6        1.0     0.878730     0.746560     0.506150    Uiso  ? Li
   Li6        1.0     0.621270     0.746560     0.006150    Uiso  ? Li
   Li6        1.0     0.378730     0.253440     0.993850    Uiso  ? Li
   Li6        1.0     0.878730     0.253440     0.006150    Uiso  ? Li
   Li6        1.0     0.121270     0.746560     0.993850    Uiso  ? Li
   Li6        1.0     0.878730     0.246560     0.493850    Uiso  ? Li
   Li6        1.0     0.121270     0.753440     0.506150    Uiso  ? Li
   Li6        1.0     0.621270     0.753440     0.493850    Uiso  ? Li
   Li6        1.0     0.378730     0.246560     0.506150    Uiso  ? Li
   Li6        1.0     0.121270     0.246560     0.006150    Uiso  ? Li
   Li6        1.0     0.878730     0.753440     0.993850    Uiso  ? Li
   Li6        1.0     0.378730     0.753440     0.006150    Uiso  ? Li
   Li6        1.0     0.621270     0.246560     0.993850    Uiso  ? Li
   Li7        1.0     0.500000     0.661980     0.250000    Uiso  ? Li
   Li7        1.0     0.000000     0.661980     0.750000    Uiso  ? Li
   Li7        1.0     0.000000     0.338020     0.250000    Uiso  ? Li
   Li7        1.0     0.000000     0.838020     0.750000    Uiso  ? Li
   Li7        1.0     0.000000     0.161980     0.250000    Uiso  ? Li
   Li7        1.0     0.500000     0.161980     0.750000    Uiso  ? Li
   Li7        1.0     0.500000     0.838020     0.250000    Uiso  ? Li
   Li8        1.0     0.750000     0.500000     0.060730    Uiso  ? Li
   Li8        1.0     0.250000     0.500000     0.939270    Uiso  ? Li
   Li8        1.0     0.250000     0.500000     0.439270    Uiso  ? Li
   Li8        1.0     0.750000     0.500000     0.560730    Uiso  ? Li
   Li8        1.0     0.250000     0.000000     0.060730    Uiso  ? Li
   Li8        1.0     0.750000     0.000000     0.939270    Uiso  ? Li
   Li8        1.0     0.750000     0.000000     0.439270    Uiso  ? Li
   Li8        1.0     0.250000     0.000000     0.560730    Uiso  ? Li
   Li9        1.0     0.750000     0.500000     0.342710    Uiso  ? Li
   Li9        1.0     0.250000     0.500000     0.657290    Uiso  ? Li
   Li9        1.0     0.250000     0.500000     0.157290    Uiso  ? Li
   Li9        1.0     0.750000     0.500000     0.842710    Uiso  ? Li
   Li9        1.0     0.250000     0.000000     0.342710    Uiso  ? Li
   Li9        1.0     0.750000     0.000000     0.657290    Uiso  ? Li
   Li9        1.0     0.750000     0.000000     0.157290    Uiso  ? Li
   Li9        1.0     0.250000     0.000000     0.842710    Uiso  ? Li
   Li10       1.0     0.837160     0.410280     0.382280    Uiso  ? Li
   Li10       1.0     0.162840     0.589720     0.617720    Uiso  ? Li
   Li10       1.0     0.662840     0.589720     0.382280    Uiso  ? Li
   Li10       1.0     0.337160     0.410280     0.617720    Uiso  ? Li
   Li10       1.0     0.162840     0.410280     0.117720    Uiso  ? Li
   Li10       1.0     0.837160     0.589720     0.882280    Uiso  ? Li
   Li10       1.0     0.337160     0.589720     0.117720    Uiso  ? Li
   Li10       1.0     0.662840     0.410280     0.882280    Uiso  ? Li
   Li10       1.0     0.337160     0.910280     0.382280    Uiso  ? Li
   Li10       1.0     0.662840     0.089720     0.617720    Uiso  ? Li
   Li10       1.0     0.162840     0.089720     0.382280    Uiso  ? Li
   Li10       1.0     0.837160     0.910280     0.617720    Uiso  ? Li
   Li10       1.0     0.662840     0.910280     0.117720    Uiso  ? Li
   Li10       1.0     0.337160     0.089720     0.882280    Uiso  ? Li
   Li10       1.0     0.837160     0.089720     0.117720    Uiso  ? Li
   Li10       1.0     0.162840     0.910280     0.882280    Uiso  ? Li
   Ge1        1.0     0.522380     0.332750     0.112380    Uiso  ? Ge
   Ge1        1.0     0.477620     0.667250     0.887620    Uiso  ? Ge
   Ge1        1.0     0.977620     0.667250     0.112380    Uiso  ? Ge
   Ge1        1.0     0.022380     0.332750     0.887620    Uiso  ? Ge
   Ge1        1.0     0.477620     0.332750     0.387620    Uiso  ? Ge
   Ge1        1.0     0.522380     0.667250     0.612380    Uiso  ? Ge
   Ge1        1.0     0.022380     0.667250     0.387620    Uiso  ? Ge
   Ge1        1.0     0.977620     0.332750     0.612380    Uiso  ? Ge
   Ge1        1.0     0.022380     0.832750     0.112380    Uiso  ? Ge
   Ge1        1.0     0.977620     0.167250     0.887620    Uiso  ? Ge
   Ge1        1.0     0.477620     0.167250     0.112380    Uiso  ? Ge
   Ge1        1.0     0.522380     0.832750     0.887620    Uiso  ? Ge
   Ge1        1.0     0.977620     0.832750     0.387620    Uiso  ? Ge
   Ge1        1.0     0.022380     0.167250     0.612380    Uiso  ? Ge
   Ge1        1.0     0.522380     0.167250     0.387620    Uiso  ? Ge
   Ge1        1.0     0.477620     0.832750     0.612380    Uiso  ? Ge
   Ge2        1.0     0.300870     0.380160     0.950910    Uiso  ? Ge
   Ge2        1.0     0.699130     0.619840     0.049090    Uiso  ? Ge
   Ge2        1.0     0.199130     0.619840     0.950910    Uiso  ? Ge
   Ge2        1.0     0.800870     0.380160     0.049090    Uiso  ? Ge
   Ge2        1.0     0.699130     0.380160     0.549090    Uiso  ? Ge
   Ge2        1.0     0.300870     0.619840     0.450910    Uiso  ? Ge
   Ge2        1.0     0.800870     0.619840     0.549090    Uiso  ? Ge
   Ge2        1.0     0.199130     0.380160     0.450910    Uiso  ? Ge
   Ge2        1.0     0.800870     0.880160     0.950910    Uiso  ? Ge
   Ge2        1.0     0.199130     0.119840     0.049090    Uiso  ? Ge
   Ge2        1.0     0.699130     0.119840     0.950910    Uiso  ? Ge
   Ge2        1.0     0.300870     0.880160     0.049090    Uiso  ? Ge
   Ge2        1.0     0.199130     0.880160     0.549090    Uiso  ? Ge
   Ge2        1.0     0.800870     0.119840     0.450910    Uiso  ? Ge
   Ge2        1.0     0.300870     0.119840     0.549090    Uiso  ? Ge
   Ge2        1.0     0.699130     0.880160     0.450910    Uiso  ? Ge
   P1         1.0     0.500000     0.499310     0.250000    Uiso  ? P
   P1         1.0     0.500000     0.500690     0.750000    Uiso  ? P
   P1         1.0     0.000000     0.500690     0.250000    Uiso  ? P
   P1         1.0     0.000000     0.499310     0.750000    Uiso  ? P
   P1         1.0     0.000000     0.999310     0.250000    Uiso  ? P
   P1         1.0     0.000000     0.000690     0.750000    Uiso  ? P
   P1         1.0     0.500000     0.000690     0.250000    Uiso  ? P
   P1         1.0     0.500000     0.999310     0.750000    Uiso  ? P
   P2         1.0     0.000000     0.750000     0.750000    Uiso  ? P
   P2         1.0     0.000000     0.250000     0.250000    Uiso  ? P
   P2         1.0     0.500000     0.250000     0.750000    Uiso  ? P
   P2         1.0     0.500000     0.750000     0.250000    Uiso  ? P
   S1         1.0     0.636060     0.286610     0.140520    Uiso  ? S
   S1         1.0     0.363940     0.713390     0.859480    Uiso  ? S
   S1         1.0     0.863940     0.713390     0.140520    Uiso  ? S
   S1         1.0     0.136060     0.286610     0.859480    Uiso  ? S
   S1         1.0     0.363940     0.286610     0.359480    Uiso  ? S
   S1         1.0     0.636060     0.713390     0.640520    Uiso  ? S
   S1         1.0     0.136060     0.713390     0.359480    Uiso  ? S
   S1         1.0     0.863940     0.286610     0.640520    Uiso  ? S
   S1         1.0     0.136060     0.786610     0.140520    Uiso  ? S
   S1         1.0     0.863940     0.213390     0.859480    Uiso  ? S
   S1         1.0     0.363940     0.213390     0.140520    Uiso  ? S
   S1         1.0     0.636060     0.786610     0.859480    Uiso  ? S
   S1         1.0     0.863940     0.786610     0.359480    Uiso  ? S
   S1         1.0     0.136060     0.213390     0.640520    Uiso  ? S
   S1         1.0     0.636060     0.213390     0.359480    Uiso  ? S
   S1         1.0     0.363940     0.786610     0.640520    Uiso  ? S
   S2         1.0     0.358760     0.313830     0.070720    Uiso  ? S
   S2         1.0     0.641240     0.686170     0.929280    Uiso  ? S
   S2         1.0     0.141240     0.686170     0.070720    Uiso  ? S
   S2         1.0     0.858760     0.313830     0.929280    Uiso  ? S
   S2         1.0     0.641240     0.313830     0.429280    Uiso  ? S
   S2         1.0     0.358760     0.686170     0.570720    Uiso  ? S
   S2         1.0     0.858760     0.686170     0.429280    Uiso  ? S
   S2         1.0     0.141240     0.313830     0.570720    Uiso  ? S
   S2         1.0     0.858760     0.813830     0.070720    Uiso  ? S
   S2         1.0     0.141240     0.186170     0.929280    Uiso  ? S
   S2         1.0     0.641240     0.186170     0.070720    Uiso  ? S
   S2         1.0     0.358760     0.813830     0.929280    Uiso  ? S
   S2         1.0     0.141240     0.813830     0.429280    Uiso  ? S
   S2         1.0     0.858760     0.186170     0.570720    Uiso  ? S
   S2         1.0     0.358760     0.186170     0.429280    Uiso  ? S
   S2         1.0     0.641240     0.813830     0.570720    Uiso  ? S
   S3         1.0     0.092560     0.380670     0.976870    Uiso  ? S
   S3         1.0     0.907440     0.619330     0.023130    Uiso  ? S
   S3         1.0     0.407440     0.619330     0.976870    Uiso  ? S
   S3         1.0     0.592560     0.380670     0.023130    Uiso  ? S
   S3         1.0     0.907440     0.380670     0.523130    Uiso  ? S
   S3         1.0     0.092560     0.619330     0.476870    Uiso  ? S
   S3         1.0     0.592560     0.619330     0.523130    Uiso  ? S
   S3         1.0     0.407440     0.380670     0.476870    Uiso  ? S
   S3         1.0     0.592560     0.880670     0.976870    Uiso  ? S
   S3         1.0     0.407440     0.119330     0.023130    Uiso  ? S
   S3         1.0     0.907440     0.119330     0.976870    Uiso  ? S
   S3         1.0     0.092560     0.880670     0.023130    Uiso  ? S
   S3         1.0     0.407440     0.880670     0.523130    Uiso  ? S
   S3         1.0     0.592560     0.119330     0.476870    Uiso  ? S
   S3         1.0     0.092560     0.119330     0.523130    Uiso  ? S
   S3         1.0     0.907440     0.880670     0.476870    Uiso  ? S
   S4         1.0     0.332620     0.379780     0.767500    Uiso  ? S
   S4         1.0     0.667380     0.620220     0.232500    Uiso  ? S
   S4         1.0     0.167380     0.620220     0.767500    Uiso  ? S
   S4         1.0     0.832620     0.379780     0.232500    Uiso  ? S
   S4         1.0     0.667380     0.379780     0.732500    Uiso  ? S
   S4         1.0     0.332620     0.620220     0.267500    Uiso  ? S
   S4         1.0     0.832620     0.620220     0.732500    Uiso  ? S
   S4         1.0     0.167380     0.379780     0.267500    Uiso  ? S
   S4         1.0     0.832620     0.879780     0.767500    Uiso  ? S
   S4         1.0     0.167380     0.120220     0.232500    Uiso  ? S
   S4         1.0     0.667380     0.120220     0.767500    Uiso  ? S
   S4         1.0     0.332620     0.879780     0.232500    Uiso  ? S
   S4         1.0     0.167380     0.879780     0.732500    Uiso  ? S
   S4         1.0     0.832620     0.120220     0.267500    Uiso  ? S
   S4         1.0     0.332620     0.120220     0.732500    Uiso  ? S
   S4         1.0     0.667380     0.879780     0.267500    Uiso  ? S
   S5         1.0     0.309930     0.441820     0.040930    Uiso  ? S
   S5         1.0     0.690070     0.558180     0.959070    Uiso  ? S
   S5         1.0     0.190070     0.558180     0.040930    Uiso  ? S
   S5         1.0     0.809930     0.441820     0.959070    Uiso  ? S
   S5         1.0     0.690070     0.441820     0.459070    Uiso  ? S
   S5         1.0     0.309930     0.558180     0.540930    Uiso  ? S
   S5         1.0     0.809930     0.558180     0.459070    Uiso  ? S
   S5         1.0     0.190070     0.441820     0.540930    Uiso  ? S
   S5         1.0     0.809930     0.941820     0.040930    Uiso  ? S
   S5         1.0     0.190070     0.058180     0.959070    Uiso  ? S
   S5         1.0     0.690070     0.058180     0.040930    Uiso  ? S
   S5         1.0     0.309930     0.941820     0.959070    Uiso  ? S
   S5         1.0     0.190070     0.941820     0.459070    Uiso  ? S
   S5         1.0     0.809930     0.058180     0.540930    Uiso  ? S
   S5         1.0     0.309930     0.058180     0.459070    Uiso  ? S
   S5         1.0     0.690070     0.941820     0.540930    Uiso  ? S
   S6         1.0     0.000000     0.630260     0.250000    Uiso  ? S
   S6         1.0     0.000000     0.369740     0.750000    Uiso  ? S
   S6         1.0     0.500000     0.369740     0.250000    Uiso  ? S
   S6         1.0     0.500000     0.630260     0.750000    Uiso  ? S
   S6         1.0     0.500000     0.130260     0.250000    Uiso  ? S
   S6         1.0     0.500000     0.869740     0.750000    Uiso  ? S
   S6         1.0     0.000000     0.869740     0.250000    Uiso  ? S
   S6         1.0     0.000000     0.130260     0.750000    Uiso  ? S
   S7         1.0     0.066820     0.469170     0.138450    Uiso  ? S
   S7         1.0     0.933180     0.530830     0.861550    Uiso  ? S
   S7         1.0     0.433180     0.530830     0.138450    Uiso  ? S
   S7         1.0     0.566820     0.469170     0.861550    Uiso  ? S
   S7         1.0     0.933180     0.469170     0.361550    Uiso  ? S
   S7         1.0     0.066820     0.530830     0.638450    Uiso  ? S
   S7         1.0     0.566820     0.530830     0.361550    Uiso  ? S
   S7         1.0     0.433180     0.469170     0.638450    Uiso  ? S
   S7         1.0     0.566820     0.969170     0.138450    Uiso  ? S
   S7         1.0     0.433180     0.030830     0.861550    Uiso  ? S
   S7         1.0     0.933180     0.030830     0.138450    Uiso  ? S
   S7         1.0     0.066820     0.969170     0.861550    Uiso  ? S
   S7         1.0     0.433180     0.969170     0.361550    Uiso  ? S
   S7         1.0     0.566820     0.030830     0.638450    Uiso  ? S
   S7         1.0     0.066820     0.030830     0.361550    Uiso  ? S
   S7         1.0     0.933180     0.969170     0.638450    Uiso  ? S
   S8         1.0     0.880570     0.532850     0.184270    Uiso  ? S
   S8         1.0     0.119430     0.467150     0.815730    Uiso  ? S
   S8         1.0     0.619430     0.467150     0.184270    Uiso  ? S
   S8         1.0     0.380570     0.532850     0.815730    Uiso  ? S
   S8         1.0     0.119430     0.532850     0.315730    Uiso  ? S
   S8         1.0     0.880570     0.467150     0.684270    Uiso  ? S
   S8         1.0     0.380570     0.467150     0.315730    Uiso  ? S
   S8         1.0     0.619430     0.532850     0.684270    Uiso  ? S
   S8         1.0     0.380570     0.032850     0.184270    Uiso  ? S
   S8         1.0     0.619430     0.967150     0.815730    Uiso  ? S
   S8         1.0     0.119430     0.967150     0.184270    Uiso  ? S
   S8         1.0     0.880570     0.032850     0.815730    Uiso  ? S
   S8         1.0     0.619430     0.032850     0.315730    Uiso  ? S
   S8         1.0     0.380570     0.967150     0.684270    Uiso  ? S
   S8         1.0     0.880570     0.967150     0.315730    Uiso  ? S
   S8         1.0     0.119430     0.032850     0.684270    Uiso  ? S
   S9         1.0     0.411170     0.284210     0.657230    Uiso  ? S
   S9         1.0     0.588830     0.715790     0.342770    Uiso  ? S
   S9         1.0     0.088830     0.715790     0.657230    Uiso  ? S
   S9         1.0     0.911170     0.284210     0.342770    Uiso  ? S
   S9         1.0     0.588830     0.284210     0.842770    Uiso  ? S
   S9         1.0     0.411170     0.715790     0.157230    Uiso  ? S
   S9         1.0     0.911170     0.715790     0.842770    Uiso  ? S
   S9         1.0     0.088830     0.284210     0.157230    Uiso  ? S
   S9         1.0     0.911170     0.784210     0.657230    Uiso  ? S
   S9         1.0     0.088830     0.215790     0.342770    Uiso  ? S
   S9         1.0     0.588830     0.215790     0.657230    Uiso  ? S
   S9         1.0     0.411170     0.784210     0.342770    Uiso  ? S
   S9         1.0     0.088830     0.784210     0.842770    Uiso  ? S
   S9         1.0     0.911170     0.215790     0.157230    Uiso  ? S
   S9         1.0     0.411170     0.215790     0.842770    Uiso  ? S
   S9         1.0     0.588830     0.784210     0.157230    Uiso  ? S
