
#======================================================================
# CRYSTAL DATA
#----------------------------------------------------------------------
data_VESTA_phase_1

_chemical_name_common                  'W2 S4'
_cell_length_a                         9.552669
_cell_length_b                         9.552669
_cell_length_c                         12.978282
_cell_angle_alpha                      90.000000
_cell_angle_beta                       90.000000
_cell_angle_gamma                      120.000000
_cell_volume                           1025.645450
_space_group_name_H-M_alt              'P 1'
_space_group_IT_number                 1

loop_
_space_group_symop_operation_xyz
   'x, y, z'

loop_
   _atom_site_label
   _atom_site_occupancy
   _atom_site_fract_x
   _atom_site_fract_y
   _atom_site_fract_z
   _atom_site_adp_type
   _atom_site_U_iso_or_equiv
   _atom_site_type_symbol
   W0         1.0     0.111111     0.222222     0.500000    Uiso  ? W
   W0         1.0     0.111111     0.555556     0.500000    Uiso  ? W
   W0         1.0     0.111111     0.888889     0.500000    Uiso  ? W
   W0         1.0     0.444444     0.222222     0.500000    Uiso  ? W
   Ni0        1.0     0.444444     0.555556     0.500000    Uiso  ? Ni
   W0         1.0     0.444444     0.888889     0.500000    Uiso  ? W
   W0         1.0     0.777778     0.222222     0.500000    Uiso  ? W
   W0         1.0     0.777778     0.555556     0.500000    Uiso  ? W
   W0         1.0     0.777778     0.888889     0.500000    Uiso  ? W
   S3         1.0     0.222222     0.111111     0.379805    Uiso  ? S
   S3         1.0     0.222222     0.444444     0.379805    Uiso  ? S
   S3         1.0     0.222222     0.777778     0.379805    Uiso  ? S
   S3         1.0     0.555556     0.111111     0.379805    Uiso  ? S
   S3         1.0     0.555556     0.444444     0.379805    Uiso  ? S
   S3         1.0     0.555556     0.777778     0.379805    Uiso  ? S
   S3         1.0     0.888889     0.111111     0.379805    Uiso  ? S
   S3         1.0     0.888889     0.444444     0.379805    Uiso  ? S
   S3         1.0     0.888889     0.777778     0.379805    Uiso  ? S
   S5         1.0     0.222222     0.111111     0.620195    Uiso  ? S
   S5         1.0     0.222222     0.444444     0.620195    Uiso  ? S
   S5         1.0     0.222222     0.777778     0.620195    Uiso  ? S
   S5         1.0     0.555556     0.111111     0.620195    Uiso  ? S
   S5         1.0     0.555556     0.444444     0.620195    Uiso  ? S
   S5         1.0     0.555556     0.777778     0.620195    Uiso  ? S
   S5         1.0     0.888889     0.111111     0.620195    Uiso  ? S
   S5         1.0     0.888889     0.444444     0.620195    Uiso  ? S
   S5         1.0     0.888889     0.777778     0.620195    Uiso  ? S
