
#======================================================================
# CRYSTAL DATA
#----------------------------------------------------------------------
data_VESTA_phase_1

_chemical_name_common                  'Li21Ge8P3S34'
_cell_length_a                         35.414501
_cell_length_b                         11.890700
_cell_length_c                         12.600400
_cell_angle_alpha                      90.000000
_cell_angle_beta                       90.000000
_cell_angle_gamma                      90.000000
_cell_volume                           5306.069018
_space_group_name_H-M_alt              'C c c e'
_space_group_IT_number                 68

loop_
_space_group_symop_operation_xyz
   'x, y, z'
   '-x, -y, -z'
   '-x, -y+1/2, z'
   'x, y+1/2, -z'
   'x, -y, -z+1/2'
   '-x, y, z+1/2'
   '-x, y+1/2, -z+1/2'
   'x, -y+1/2, z+1/2'
   'x+1/2, y+1/2, z'
   '-x+1/2, -y+1/2, -z'
   '-x+1/2, -y, z'
   'x+1/2, y, -z'
   'x+1/2, -y+1/2, -z+1/2'
   '-x+1/2, y+1/2, z+1/2'
   '-x+1/2, y, -z+1/2'
   'x+1/2, -y, z+1/2'

loop_
   _atom_site_label
   _atom_site_occupancy
   _atom_site_fract_x
   _atom_site_fract_y
   _atom_site_fract_z
   _atom_site_adp_type
   _atom_site_U_iso_or_equiv
   _atom_site_type_symbol
   Ge1        1.0     0.411820     0.773200     0.611100    Uiso  0.030300 Ge
   Ge2        1.0     0.372330     0.537900     0.468000    Uiso  0.030300 Ge
   S1         1.0     0.462380     0.866200     0.611100    Uiso  0.034500 S
   S2         1.0     0.425500     0.601400     0.549400    Uiso  0.034500 S
   S3         1.0     0.375800     0.353800     0.513800    Uiso  0.034500 S
   S4         1.0     0.375600     0.578100     0.300000    Uiso  0.034500 S
   S5         1.0     0.320300     0.583300     0.538100    Uiso  0.034500 S
   S6         1.0     0.372600     0.750000     0.750000    Uiso  0.034500 S
   S7         1.0     0.281960     0.350800     0.655300    Uiso  0.034500 S
   S8         1.0     0.216800     0.138400     0.663400    Uiso  0.034500 S
   S9         1.0     0.467430     0.657500     0.153300    Uiso  0.034500 S
   P1         1.0     0.249570     0.250000     0.750000    Uiso  0.021000 P
   P2         1.0     0.500000     0.750000     0.250000    Uiso  0.021000 P
   Li1        1.0     0.937100     0.503500     0.272800    Uiso  0.065000 Li
   Li2        0.8900  0.335400     0.250000     0.750000    Uiso  0.065000 Li
   Li3        0.4500  0.170000     0.573000     0.750000    Uiso  0.065000 Li
   Li4        1.0     0.691600     0.224200     0.488900    Uiso  0.065000 Li
   Li5        1.0     0.500000     0.750000     0.750000    Uiso  0.065000 Li
   Li6        0.4710  0.006500     0.717000     0.001000    Uiso  0.065000 Li
   Li7        0.8200  0.081700     0.250000     0.250000    Uiso  0.065000 Li
   Li8        0.9600  0.250000     0.000000     0.518000    Uiso  0.065000 Li
   Li9        0.3900  0.750000     0.500000     0.796000    Uiso  0.065000 Li
   Li10       0.5500  0.320700    -0.018000     0.796000    Uiso  0.065000 Li
