
#======================================================================
# CRYSTAL DATA
#----------------------------------------------------------------------
data_VESTA_phase_1

_chemical_name_common                  'Ccca'
_cell_length_a                         35.4145(7)
_cell_length_b                         11.8907(2)
_cell_length_c                         12.6004(3)
_cell_angle_alpha                      90.000000
_cell_angle_beta                       90.000000
_cell_angle_gamma                      90.000000
_cell_volume                           5306.039198
_space_group_name_H-M_alt              'C c c e'
_space_group_IT_number                 68

loop_
_space_group_symop_operation_xyz
   'x, y, z'
   '-x, -y, -z'
   '-x+1/2, -y, z'
   'x+1/2, y, -z'
   '-x, y, -z+1/2'
   'x, -y, z+1/2'
   'x+1/2, -y, -z+1/2'
   '-x+1/2, y, z+1/2'
   'x+1/2, y+1/2, z'
   '-x+1/2, -y+1/2, -z'
   '-x, -y+1/2, z'
   'x, y+1/2, -z'
   '-x+1/2, y+1/2, -z+1/2'
   'x+1/2, -y+1/2, z+1/2'
   'x, -y+1/2, -z+1/2'
   '-x, y+1/2, z+1/2'

loop_
   _atom_site_label
   _atom_site_occupancy
   _atom_site_fract_x
   _atom_site_fract_y
   _atom_site_fract_z
   _atom_site_adp_type
   _atom_site_U_iso_or_equiv
   _atom_site_type_symbol
   Ge1        1.0     0.41182(6)   0.7732(2)    0.61113(17) Uiso  0.030300 Ge
   S1         1.0     0.46238(16)  0.8662(5)    0.6407(5)   Uiso  0.034500 S
   S2         1.0     0.42553(17)  0.6014(5)    0.5494(5)   Uiso  0.034500 S
   Ge2        1.0     0.37233(7)   0.53793(17)  0.46795(18) Uiso  0.030300 Ge
   S3         1.0     0.3758(3)    0.3538(4)    0.5138(4)   Uiso  0.034500 S
   S4         1.0     0.3756(2)    0.5781(4)    0.3000(4)   Uiso  0.034500 S
   S5         1.0     0.32030(17)  0.5833(5)    0.5381(5)   Uiso  0.034500 S
   S6         1.0     0.3726(3)    0.750000     0.750000    Uiso  0.034500 S
   S7         1.0     0.28196(17)  0.3508(4)    0.6553(5)   Uiso  0.034500 S
   P1         1.0     0.24957(14)  0.250000     0.750000    Uiso  0.021000 P
   S8         1.0     0.21680(16)  0.1384(5)    0.6634(5)   Uiso  0.034500 S
   S9         1.0     0.46743(17)  0.6575(4)    0.1533(5)   Uiso  0.034500 S
   P2         1.0     0.500000     0.750000     0.250000    Uiso  0.021000 P
   Li1        1.0     0.9371(4)    0.5035(13)   0.2728(13)  Uiso  0.065000 Li
   Li2        0.8890  0.3354(7)    0.250000     0.750000    Uiso  0.065000 Li
   Li3        0.4500  0.1700(16)   0.573(5)     0.217(5)    Uiso  0.065000 Li
   Li4        1.0     0.6916(4)    0.2242(11)   0.4889(11)  Uiso  0.065000 Li
   Li5        1.0     0.500000     0.750000     0.750000    Uiso  0.065000 Li
   Li6        0.4710  0.0065(9)    0.717(3)     0.001(2)    Uiso  0.065000 Li
   Li7        0.8190  0.0817(8)    0.250000     0.250000    Uiso  0.065000 Li
   Li8        0.9580  0.250000     0.000000     0.518(2)    Uiso  0.065000 Li
   Li9        0.3920  0.750000     0.500000     0.796(4)    Uiso  0.065000 Li
   Li10       0.5500  0.3202(7)   -0.018(3)     0.764(3)    Uiso  0.065000 Li
